%chk=buta02.chk
# b3lyp/6-31g* geom=connectivity td=(50-50,nstates=3)

Title Card Required

0 1
 C                 -2.74830259   -0.17543859    0.03597725
 H                 -2.21513884   -1.10314351    0.03597725
 H                 -3.81830259   -0.17543859    0.03597725
 C                 -2.07302828    0.99953870    0.03597725
 H                 -2.60619203    1.92724362    0.03597725
 C                 -0.53302828    0.99953870    0.03597725
 H                  0.00013547    0.07183378    0.03597725
 C                  0.14921512    2.17048319    0.03597725
 H                 -0.37842735    3.10133947    0.03597725
 H                  1.21919624    2.16412589    0.03597725

 1 2 1.0 3 1.0 4 2.0
 2
 3
 4 5 1.0 6 1.0
 5
 6 7 1.0 8 2.0
 7
 8 9 1.0 10 1.0
 9
 10

