%chk=hexa1.chk
# td=(50-50,nstates=3) b3lyp/6-31* geom=connectivity

Title Card Required

0 1
 C                 -3.85964927   -1.19883039    0.00000000
 H                 -3.32648552   -2.12653531    0.00000000
 H                 -4.92964927   -1.19883039    0.00000000
 C                 -3.18437496   -0.02385309    0.00000000
 H                 -3.71753871    0.90385183    0.00000000
 C                 -1.64437496   -0.02385309    0.00000000
 H                 -1.11121121   -0.95155801    0.00000000
 C                 -0.96213156    1.14709139   -0.00000000
 H                 -1.48977403    2.07794767    0.00000000
 C                  0.57784126    1.13794163   -0.00000000
 H                  1.10548373    0.20708535   -0.00000000
 C                  1.26702967    2.30481197   -0.00000000
 H                  0.74492710    3.23878676    0.00000000
 H                  2.33695412    2.29209759   -0.00000000

 1 2 1.0 3 1.0 4 2.0
 2
 3
 4 5 1.0 6 1.0
 5
 6 7 1.0 8 2.0
 7
 8 9 1.0 10 1.0
 9
 10 11 1.0 12 2.0
 11
 12 13 1.0 14 1.0
 13
 14

